10
XYZ file generated by orca_plot on BaseName=eg_0
  C      -1.777799      0.053515     -1.730065
  H      -1.723476      1.089159     -2.090440
  H      -0.880764     -0.468813     -2.050516
  C      -1.872214      0.027434     -0.208774
  H      -2.790843      0.527908      0.124372
  H      -1.896453     -1.001401      0.139187
  O      -2.891421     -0.656807     -2.344617
  H      -3.721841     -0.167308     -2.207236
  O      -0.696461      0.627012      0.407819
  H      -0.679088      1.586206      0.241252
